
     RDKit          3D

 70 70  0  0  0  0  0  0  0  0999 V2000
   -6.4088  -37.3559   -1.6438 N   0  0  0  0  0  4  0  0  0  0  0  0
   -7.1070  -36.7487   -0.5121 C   0  0  2  0  0  0  0  0  0  0  0  0
   -6.5342  -35.4004   -0.3026 C   0  0  0  0  0  0  0  0  0  0  0  0
   -5.3376  -35.2859    0.0678 O   0  0  0  0  0  0  0  0  0  0  0  0
   -7.0642  -37.6299    0.7005 C   0  0  0  0  0  0  0  0  0  0  0  0
   -7.2622  -34.1897   -0.4968 N   0  0  0  0  0  0  0  0  0  0  0  0
   -6.9222  -32.9288    0.1442 C   0  0  2  0  0  0  0  0  0  0  0  0
   -5.5424  -32.8715    0.5586 C   0  0  0  0  0  0  0  0  0  0  0  0
   -4.9008  -33.9210    0.8113 O   0  0  0  0  0  0  0  0  0  0  0  0
   -7.9854  -32.5065    1.0739 C   0  0  0  0  0  0  0  0  0  0  0  0
   -8.9368  -31.4495    0.7604 C   0  0  0  0  0  0  0  0  0  0  0  0
   -9.9802  -31.0621    1.7437 C   0  0  0  0  0  0  0  0  0  0  0  0
  -10.8210  -29.8788    1.3710 C   0  0  0  0  0  0  0  0  0  0  0  0
  -11.9141  -30.1748    0.4873 N   0  0  0  0  0  4  0  0  0  0  0  0
   -4.8025  -31.6332    0.7014 N   0  0  0  0  0  0  0  0  0  0  0  0
   -3.6336  -31.3974   -0.0399 C   0  0  2  0  0  0  0  0  0  0  0  0
   -3.6639  -29.9897   -0.6108 C   0  0  0  0  0  0  0  0  0  0  0  0
   -3.6396  -29.8077   -1.8613 O   0  0  0  0  0  0  0  0  0  0  0  0
   -3.0121  -32.3495   -0.9436 C   0  0  0  0  0  0  0  0  0  0  0  0
   -1.6319  -32.8363   -0.7214 C   0  0  0  0  0  0  0  0  0  0  0  0
   -1.4532  -33.8793    0.2718 C   0  0  0  0  0  0  0  0  0  0  0  0
   -0.4712  -33.9189    1.0216 O   0  0  0  0  0  0  0  0  0  0  0  0
   -2.4319  -34.9429    0.4343 N   0  0  0  0  0  0  0  0  0  0  0  0
   -3.7106  -28.8390    0.2046 N   0  0  0  0  0  0  0  0  0  0  0  0
   -3.8933  -27.5046   -0.3541 C   0  0  2  0  0  0  0  0  0  0  0  0
   -2.7849  -26.6265    0.1053 C   0  0  0  0  0  0  0  0  0  0  0  0
   -2.4567  -26.7664    1.3327 O   0  0  0  0  0  0  0  0  0  0  0  0
   -5.2222  -26.9273   -0.0420 C   0  0  2  0  0  0  0  0  0  0  0  0
   -5.2383  -26.2716    1.1992 O   0  0  0  0  0  0  0  0  0  0  0  0
   -6.3353  -27.9293   -0.0665 C   0  0  0  0  0  0  0  0  0  0  0  0
   -2.1053  -25.6885   -0.7032 N   0  0  0  0  0  0  0  0  0  0  0  0
   -1.3549  -24.6537   -0.0639 C   0  0  2  0  0  0  0  0  0  0  0  0
   -2.0778  -23.3736    0.0239 C   0  0  0  0  0  0  0  0  0  0  0  0
   -3.1386  -23.2297   -0.6334 O   0  0  0  0  0  0  0  0  0  0  0  0
   -0.0565  -24.4827   -0.8751 C   0  0  0  0  0  0  0  0  0  0  0  0
   -1.6196  -22.3001    0.8277 N   0  0  0  0  0  0  0  0  0  0  0  0
   -2.0859  -20.9346    0.7267 C   0  0  2  0  0  0  0  0  0  0  0  0
   -1.2899  -20.1149   -0.1765 C   0  0  0  0  0  0  0  0  0  0  0  0
   -0.5548  -20.6579   -1.0366 O   0  0  0  0  0  0  0  0  0  0  0  0
   -2.3300  -20.3932    2.0910 C   0  0  0  0  0  0  0  0  0  0  0  0
   -2.2349  -18.9085    2.1568 C   0  0  0  0  0  0  0  0  0  0  0  0
   -2.7073  -18.4097    3.5237 C   0  0  0  0  0  0  0  0  0  0  0  0
   -3.0339  -17.0118    3.4391 N   0  0  0  0  0  0  0  0  0  0  0  0
   -3.4614  -16.3213    4.5871 C   0  0  0  0  0  0  0  0  0  0  0  0
   -2.6565  -15.5549    5.1925 N   0  0  0  0  0  0  0  0  0  0  0  0
   -4.8091  -16.4733    5.0799 N   0  0  0  0  0  0  0  0  0  0  0  0
   -1.3451  -18.6802   -0.0830 N   0  0  0  0  0  0  0  0  0  0  0  0
   -0.6150  -17.9221   -1.0351 C   0  0  2  0  0  0  0  0  0  0  0  0
   -0.5449  -16.4980   -0.4420 C   0  0  0  0  0  0  0  0  0  0  0  0
   -1.3322  -16.2183    0.4498 O   0  0  0  0  0  0  0  0  0  0  0  0
   -1.1925  -17.8462   -2.3873 C   0  0  0  0  0  0  0  0  0  0  0  0
   -0.3983  -18.3436   -3.5370 C   0  0  0  0  0  0  0  0  0  0  0  0
   -0.9386  -18.2191   -4.9064 C   0  0  0  0  0  0  0  0  0  0  0  0
    0.0408  -18.8162   -5.9269 C   0  0  0  0  0  0  0  0  0  0  0  0
   -0.4477  -18.7016   -7.2819 N   0  0  0  0  0  4  0  0  0  0  0  0
   -0.2337  -19.9900   -7.9439 C   0  0  0  0  0  0  0  0  0  0  0  0
   -0.7322  -20.0101   -9.3240 C   0  0  0  0  0  0  0  0  0  0  0  0
   -1.9041  -19.3339   -9.6632 C   0  0  0  0  0  0  0  0  0  0  0  0
   -2.3633  -19.3674  -10.9502 C   0  0  0  0  0  0  0  0  0  0  0  0
   -1.6533  -20.0733  -11.8894 C   0  0  0  0  0  0  0  0  0  0  0  0
   -0.4976  -20.7442  -11.5687 C   0  0  0  0  0  0  0  0  0  0  0  0
   -0.0304  -20.7130  -10.2719 C   0  0  0  0  0  0  0  0  0  0  0  0
    0.4098  -15.5764   -0.9354 N   0  0  0  0  0  0  0  0  0  0  0  0
    1.1126  -14.6527   -0.0442 C   0  0  2  0  0  0  0  0  0  0  0  0
    0.3047  -13.4276    0.1890 C   0  0  0  0  0  0  0  0  0  0  0  0
    0.6880  -12.5779    1.0364 O   0  0  0  0  0  0  0  0  0  0  0  0
    2.4351  -14.3096   -0.6635 C   0  0  0  0  0  0  0  0  0  0  0  0
    2.2777  -13.3487   -1.6524 O   0  0  0  0  0  0  0  0  0  0  0  0
   -0.8555  -13.2096   -0.5073 O   0  0  0  0  0  0  0  0  0  0  0  0
   -2.2145  -14.7271    4.7721 H   0  0  0  0  0  0  0  0  0  0  0  0
  1  2  1  0
  2  3  1  0
  2  5  1  1
  3  4  2  0
  3  6  1  0
  6  7  1  0
  7  8  1  0
  7 10  1  1
  8  9  2  0
  8 15  1  0
 10 11  1  0
 11 12  1  0
 12 13  1  0
 13 14  1  0
 15 16  1  0
 16 17  1  0
 16 19  1  6
 17 18  2  0
 17 24  1  0
 19 20  1  0
 20 21  1  0
 21 22  2  0
 21 23  1  0
 25 24  1  1
 25 26  1  0
 25 28  1  0
 26 27  2  0
 26 31  1  0
 28 29  1  0
 28 30  1  1
 31 32  1  0
 32 33  1  0
 32 35  1  6
 33 34  2  0
 33 36  1  0
 36 37  1  0
 37 38  1  0
 37 40  1  1
 38 39  2  0
 38 47  1  0
 40 41  1  0
 41 42  1  0
 42 43  1  0
 43 44  1  0
 44 45  2  0
 44 46  1  0
 47 48  1  0
 48 49  1  0
 48 51  1  6
 49 50  2  0
 49 63  1  0
 51 52  1  0
 52 53  1  0
 53 54  1  0
 54 55  1  0
 55 56  1  0
 56 57  1  0
 57 58  2  0
 57 62  1  0
 58 59  1  0
 59 60  2  0
 60 61  1  0
 61 62  2  0
 63 64  1  0
 64 65  1  0
 64 67  1  6
 65 66  2  0
 65 69  1  0
 67 68  1  0
 45 70  1  0
M  CHG  3   1   1  14   1  55   1
M  END
$$$$
